  
       XFOIL         Version 6.99
  
 Calculated polar for: NACA 0012                                       
  
 1 1 Reynolds number fixed          Mach number fixed         
  
 xtrf =   1.000 (top)        1.000 (bottom)  
 Mach =   0.000     Re =     0.300 e 6     Ncrit =   9.000
  
   alpha    CL        CD       CDp       CM     Top_Xtr  Bot_Xtr
  ------ -------- --------- --------- -------- -------- --------
   0.000   0.0000   0.00768   0.00320  -0.0000   0.8590   0.8590
   2.000   0.2415   0.00875   0.00366   0.0007   0.6512   0.9621
   4.000   0.5384   0.01056   0.00432  -0.0155   0.3566   1.0000
   6.000   0.7078   0.01337   0.00612  -0.0069   0.1279   1.0000
   8.000   0.8621   0.01785   0.01038   0.0050   0.0616   1.0000
   0.000   0.0000   0.00768   0.00320  -0.0000   0.8590   0.8590
   2.000   0.2415   0.00875   0.00366   0.0007   0.6512   0.9621
   4.000   0.5384   0.01056   0.00432  -0.0155   0.3566   1.0000
